.options savecurrents


* PHILIPS BJT'S
.MODEL BC557A PNP(IS=2.059E-14 ISE=2.971f ISC=1.339E-14 XTI=3 BF=227.3 BR=7.69 IKF=0.08719 IKR=0.07646 XTB=1.5 VAF=37.2 VAR=11.42 VJE=0.5912 VJC=0.1 RE=0.688 RC=0.6437 RB=1 RBM=1 IRB=1E-06 CJE=1.4E-11 CJC=1.113E-11 XCJC=0.6288 FC=0.7947 NF=1.003 NR=1.007 NE=1.316 NC=1.15 MJE=0.3572 MJC=0.3414 TF=7.046E-10 TR=1m2 ITF=0.1947 VTF=5.367 XTF=4.217 EG=1.11)
.MODEL BC547A NPN(IS=1.533E-14 ISE=7.932E-16 ISC=8.305E-14 XTI=3 BF=178.7 BR=8.628 IKF=0.1216 IKR=0.1121 XTB=1.5 VAF=69.7 VAR=44.7 VJE=0.4209 VJC=0.2 RE=0.6395 RC=0.6508 RB=1 RBM=1 IRB=1E-06 CJE=1.61E-11 CJC=4.388p XCJC=0.6193 FC=0.7762 NF=1.002 NR=1.004 NE=1.436 NC=1.207 MJE=0.3071 MJC=0.2793 TF=4.995E-10 TR=1m2 ITF=0.7021 VTF=3.523 XTF=139 EG=1.11)



.include ../mat/description.cir

.op
.end

.control


print all


op


echo "NPN_TAB"
let Vce=v(coll)-v(emit)
echo "Vce = $&Vce V"
let Vbe=v(base)-v(emit)
echo "Vbe = $&Vbe V"
if (Vce>Vbe)
echo "Correct F.A.R = yes"
else
echo "Wrong F.A.R"
endif


echo "NPN_END"


echo "PNP_TAB"
let Vec=v(emit2)
echo "Vec = $&Vec V"
let Veb=v(emit2)-v(coll)
echo "Veb = $&Veb V"
if (Vec>Veb)
echo "Correct F.A.R = yes"
else
echo "Wrong F.A.R"
endif
echo "PNP_END"


echo  "op_TAB"
print all
echo  "op_END"



ac dec 10 10 100MEG
*plot vdb(coll)
*plot vp(coll)
*plot vdb(in)
*hardcopy vo1f.ps {vdb(coll)}
echo vo1f_FIG 

*plot vdb(out)
*plot vp(out)
hardcopy vo2f.ps {vdb(out)}
echo vo2f_FIG 


meas AC max MAX vdb(out) from=10 to=100MEG
let range = max - 3


meas AC lower WHEN vdb(out) = range RISE =1
meas AC upper WHEN vdb(out) = range CROSS=LAST


let bandwidth = upper-lower
let gain = max
let CutOutFreq1= lower
let CutOutFreq2= upper
let quality = bandwidth*gain/CutOutFreq1


echo "Zin_TAB"
let Zrin= Re(v(in2)[40]/i(Vin)[40])
let Zimin= Im(v(in2)[40]/i(Vin)[40])
echo "Zin = $&Zrin + $&Zimin j"
echo "Zin_END"


*total_r = (Rin+R1+R2+Rc+Re+Rout+RL)/1000
*total_c = (Ci+Cb+Cout)*1000000
* total_t = 2*0.1

let cost = 2198.943
let merit = quality/cost


echo "values_TAB"
echo "VGain = $&gain"
echo "Bandwidth = $&bandwidth Hz"
echo "LowerCutoffFreq = $&CutOutFreq1 Hz"
echo "HigherCutoffFreq = $&CutOutFreq2 Hz"
echo "Cost = $&cost"
echo "merit = $&merit"
echo "values_END"


.endc 

